EI_33_out.txt
ANDES 0.post18.dev0+gbaa9465
Copyright (C) 2015-2022 Hantao Cui

ANDES comes with ABSOLUTELY NO WARRANTY
Case file: /home/pablo/Desktop/eroots/COLMENA/AndesApp/andes/cases/ei/EI_33.xlsx
Report time: 12/09/2024 05:20:52 PM

Power flow converged in 5 iterations.
Flat-start: No

Statistics:
Buses                            528
Generators                        84
Committed Gens                    84
Loads                            825
Shunts                           467
Lines                           1742
Transformers                    1198
Areas                             73

EXTENDED SUMMARY:
                              P (pu)            Q (pu)

Generation                    6064.5            1432.6
Load                          5947.4            2828.8

BUS DATA:
                            Bus Name            Vm(pu)          Va(rad.)

100001                             1            1.0351           -1.2212
100006                             2            1.0176           -1.4773
100007                             3            1.0336           -1.2749
100008                             4            1.0369           -1.2161
100009                             5            1.0495           -1.0136
100011                             6            1.0537          -0.74374
100013                             7              1.06           -1.0544
100026                             8            1.0539          -0.98084
100029                             9            1.0529           -1.1216
100042                            10              1.01           -1.0977
100114                           514            1.0034          -0.56828
100115                           515              1.02          -0.52784
100116                           516            1.0068          -0.64131
100117                           517            1.0104          -0.57491
100118                           518            1.0015          -0.56048
100119                           519                 1          -0.58409
100120                           520              1.02          -0.65966
100121                           521              1.04          -0.53427
100122                           522              1.05           -0.5475
100123                           523              1.01          -0.45913
100214                            11            1.0219           -1.1166
100285                            12           0.99175          -0.94991
100423                            13            1.0238           -1.0239
100435                            14            1.0333           -1.0183
100477                            15            1.0239          -0.73828
100577                            16            1.0535          -0.60431
101001                           395            1.0045           -1.5401
101002                           396           0.99938           -1.5462
101003                           397            1.0408           -1.5514
101004                           398            1.0006            -1.554
101005                           399           0.99593           -1.5876
101006                           400            1.0008           -1.6193
101007                           401             1.019           -1.6026
101008                           402            1.0156           -1.6256
101009                           403              1.01           -1.6296
101010                           404             1.041           -1.5577
101011                           405           0.98073           -1.5863
101012                           406            1.0256           -1.5739
101013                           407            1.0502           -1.5083
101014                           408            1.0486           -1.5039
101015                           409            1.0238           -1.5833
101016                           410             1.013           -1.5818
101017                           411            1.0294           -1.6518
101018                           412             1.017           -1.6617
101019                           413            1.0394           -1.6634
101020                           414            1.0419           -1.6375
101021                           415              0.98           -1.4349
101022                           416              0.99           -1.4917
101023                           417            1.0066           -1.4954
101024                           418              1.05           -1.4467
101025                           419              1.06           -1.4094
101026                           420              1.02           -1.5621
101027                           421              1.02           -1.5379
101028                           422            1.0404           -1.5491
101029                           423            1.0151           -1.5491
101030                           424            1.0049           -1.6145
101031                           425           0.98478           -1.6118
101032                           426           0.98901           -1.5672
101033                           427           0.99267           -1.5573
101034                           428            0.9791           -1.5739
101035                           429           0.97684           -1.5709
101036                           430              0.98           -1.4406
101037                           431            1.0061            -1.259
101038                           432            1.0039           -1.1865
101039                           433            1.0088           -1.3063
101040                           434            0.9863           -1.2681
101041                           435             1.027           -1.3146
101042                           436              1.04           -1.2886
101043                           437            1.0196           -1.0846
101044                           438            1.0176            -1.121
101045                           439            1.0122           -1.1652
101046                           440           0.91204           -1.2429
101047                           441              1.03           -1.0389
101048                           442              1.05          -0.96035
101049                           443           0.93475           -1.2832
101050                           444              1.05          -0.92181
101051                           445              1.04           -0.9988
101052                           446            1.0296          -0.71928
101053                           447              1.03          -0.73263
101054                           448            1.0408           -0.4933
101055                           449              1.04          -0.52213
101056                           450              1.03          -0.53335
101057                           451              1.03           -0.5459
101058                           452             1.001          -0.60607
101059                           453            1.0196          -0.64063
101060                           454              1.04          -0.58748
101061                           455              1.04          -0.62055
101062                           456            1.0061          -0.62517
101063                           457           0.99156          -0.80105
101064                           458           0.99654          -0.84956
101065                           459              1.04           -0.7944
101066                           460            1.0095           -0.8296
101067                           461           0.99391          -0.90406
101068                           462              0.99          -0.95516
101069                           463            1.0022           -0.9664
101070                           464           0.99596          -0.94928
101071                           465                 1          -0.98413
101072                           466              1.05          -0.98382
101073                           467            1.0106            -1.364
101074                           468            1.0231           -1.3718
101075                           469            1.0339           -1.3496
101076                           470            1.0437           -1.3598
101077                           471            1.0316           -1.3662
101078                           472              1.02            -1.374
101079                           473              1.05           -1.2313
101080                           474            1.0232           -1.3668
101081                           475            1.0261           -1.4684
101082                           476              1.05           -1.2419
101083                           477            1.0063          -0.68894
101084                           478            1.0079          -0.68204
101085                           479            1.0732          -0.47757
101086                           480                 1          -0.38305
101087                           481             1.019          -0.52397
101088                           482            1.0459          -0.53082
101089                           483            1.0147          -0.57302
101090                           484            1.0094          -0.57531
101091                           485              1.04          -0.88912
101092                           486              1.04          -0.81794
101093                           487           0.96259          -0.97701
101094                           488           0.96424          -0.95557
101095                           489           0.94905          -0.94202
101096                           490            0.9972          -0.93461
101097                           491              1.04          -0.91675
101098                           492              1.04          -0.56525
101099                           493            1.0382          -0.58069
101100                           494            1.0352          -0.69951
101101                           495              1.05          -0.59275
101102                           496            1.0203          -0.54599
101103                           497            1.0103          -0.55383
101104                           498            1.0012          -0.83141
101105                           499            1.0263          -0.65818
101106                           500            1.0038          -0.80789
101107                           501            1.0133          -0.77917
101108                           502             1.003          -0.81573
101109                           503             1.003          -0.81625
101110                           504            1.0058          -0.84753
101111                           505           0.97294          -0.89629
101112                           506            1.0429          -0.58011
101113                           507            1.0067          -0.69609
101114                           508            1.0305           -1.3244
101115                           509            1.0263           -1.4722
101116                           510           0.99624          -0.82911
101117                           511              1.04          -0.75621
101118                           512           0.96019           -1.0325
101119                           513            1.0377           -0.6871
101168                            17           0.99472           -1.1842
101733                            18           0.99169           -1.0352
102884                            19            0.9706           -1.5731
103054                            20            1.0061           -1.1251
103066                            21            1.0231           -1.2791
103070                            22           0.97803           -1.1171
103080                            23            1.0105           -1.2995
103147                            24            1.0591          -0.74085
104048                            25            1.0369           -1.4251
104110                            26                 1           -1.1708
104366                            27           0.99917           -1.5905
105016                            28           0.97269           -1.5588
105025                            29           0.99873           -1.5819
105167                            30            1.0587           -1.5649
105964                            31            1.0042           -1.2386
110024                            32            1.0251          -0.91351
110030                            33            1.0334           -1.1561
110070                            34            1.0249           -0.9187
110163                            35           0.97395           -1.1686
110185                            36           0.97766           -1.1741
110190                            37            1.0091           -1.1051
110228                            38            0.9901           -1.2551
110741                            39            1.0094          -0.73708
110800                            40            1.0059          -0.68767
110862                            41            1.0107          -0.71494
112015                            42            1.0092          -0.45702
112407                            43            1.0018          -0.55143
112460                            44            1.0091          -0.57651
112803                            45            1.0203          -0.44659
114072                            46            1.0198           -1.2633
114574                            47            0.9743           -1.3661
114696                            48            1.0001          -0.94208
114744                            49           0.99681          -0.93965
114794                            50            1.0115          -0.86504
114902                            51            1.0512           -1.0681
114908                            52            1.0299           -1.0374
114913                            53            1.0386           -1.1409
114916                            54            1.0442           -1.0697
114917                            55            1.0376          -0.85602
114922                            56            1.0391           -1.1342
115007                            57            1.0509          -0.32931
115016                            58            1.0294          -0.41717
115018                            59           0.98725          -0.49989
115025                            60            1.0132          -0.71594
115038                            61             1.027          -0.50781
115250                            62           0.98205          -0.30808
116018                            63            1.0366          -0.55446
116085                            64            1.0251          -0.71053
116106                            65            1.0302          -0.46527
116124                            66            1.0248          -0.53372
116151                            67            1.0332          -0.51806
116181                            68           0.99121          -0.71437
116241                            69            1.0212          -0.48566
116301                            70            1.0065          -0.96566
116302                            71           0.96592          -0.86723
...

LINE DATA:
                           Line Name     Fr. Bus (idx)      To Bus (idx)       P From (pu)       Q From (pu)         P To (pu)         Q To (pu)

Line_1                        Line_1             1e+05        1.0001e+05            11.063             1.734           -10.953            1.1065
Line_2                        Line_2             1e+05        1.0001e+05            1.0964          0.019388           -1.0943          0.039488
Line_3                        Line_3             1e+05        1.0001e+05           -4.7839           -1.5339            4.7848            1.4739
Line_4                        Line_4             1e+05        1.0001e+05           -10.429          0.015147            10.521           0.51593
Line_5                        Line_5             1e+05        1.0001e+05           -2.3641           0.21759            2.3911           0.27823
Line_6                        Line_6             1e+05        1.0111e+05            10.485           0.20963           -10.444           0.10327
Line_7                        Line_7             1e+05        1.0307e+05            1.8257           0.34851           -1.8215          -0.23936
Line_8                        Line_8        1.0001e+05        1.0001e+05           -10.542           0.65294            10.623            1.5029
Line_9                        Line_9        1.0001e+05        1.0003e+05           -11.216            1.4961            11.417            2.5904
Line_10                      Line_10        1.0001e+05        1.0001e+05           -14.986           0.17386            15.028           0.38257
Line_11                      Line_11        1.0001e+05        1.0001e+05           -8.3168           0.30369            8.3907            1.5614
Line_12                      Line_12        1.0001e+05        1.0001e+05           -3.7825            0.3371            3.8187           0.43594
Line_13                      Line_13        1.0001e+05        1.0001e+05            -3.289         -0.023318            3.3145            0.5647
Line_14                      Line_14        1.0001e+05        1.0001e+05           -9.8577           0.51112            9.9655         0.0031799
Line_15                      Line_15        1.0001e+05        1.0001e+05           -4.6771           0.81712            4.7444           0.46096
Line_16                      Line_16        1.0001e+05        1.0001e+05             1.432          -0.38807           -1.4291           0.45074
Line_17                      Line_17        1.0001e+05        1.0003e+05          -0.14752        -0.0091686           0.14775          0.014047
Line_18                      Line_18        1.0001e+05        1.0112e+05          0.062177           0.21749         -0.060639          -0.19787
Line_19                      Line_19        1.0001e+05        1.0003e+05            4.5242           0.29492           -4.4678           0.77615
Line_20                      Line_20        1.0001e+05        1.0012e+05          -0.36494          0.095798           0.36494         -0.014901
Line_21                      Line_21        1.0001e+05        1.0012e+05          -0.28045          0.054321           0.28466          0.001399
Line_22                      Line_22        1.0001e+05        1.1492e+05           0.97601           0.14577          -0.97111         -0.034952
Line_23                      Line_23        1.0001e+05        1.0003e+05             -4.52           0.72293            4.5346          -0.38633
Line_24                      Line_24        1.0001e+05        1.0003e+05            3.7094           0.31738           -3.6974          -0.06721
Line_25                      Line_25        1.0001e+05         1.201e+05            1.9266           0.27806           -1.9184         -0.045835
Line_26                      Line_26        1.0003e+05         1.201e+05            1.1956           0.13628           -1.1894          0.094818
Line_27                      Line_27        1.0011e+05        1.0012e+05          0.014301         -0.021659         -0.014257          0.021907
Line_28                      Line_28        1.0011e+05        1.0012e+05          0.060079        -0.0069324          -0.05976         0.0078552
Line_29                      Line_29        1.0011e+05        1.0012e+05          -0.47488           -0.4135           0.47736           0.44509
Line_30                      Line_30        1.0011e+05        1.0109e+05            0.4005          -0.46326           -0.3996           0.46885
Line_31                      Line_31        1.0012e+05        1.0012e+05           0.11952          0.011521          -0.11851         0.0020597
Line_32                      Line_32        1.0012e+05        1.0012e+05            4.3048           0.57959           -4.2867          -0.37285
Line_33                      Line_33        1.0012e+05        1.0012e+05           0.16291         -0.048723           -0.1583          0.053033
Line_34                      Line_34        1.0012e+05        1.0012e+05            1.4997           0.43532           -1.4919          -0.34344
Line_35                      Line_35        1.0012e+05        1.0012e+05          0.017741         -0.069599         -0.017632          0.071079
Line_36                      Line_36        1.0012e+05        1.0109e+05           -2.1938           0.66343            2.1943          -0.67511
Line_37                      Line_37        1.0012e+05        1.2267e+05           0.18373          0.026641          -0.18373         -0.022523
Line_38                      Line_38        1.0012e+05        1.0012e+05           -0.2494          0.039662           0.25238          -0.02311
Line_39                      Line_39        1.0012e+05        1.0012e+05           -1.0499           0.28161            1.0635          -0.19489
Line_40                      Line_40        1.0012e+05        1.0012e+05          0.018672         -0.024722         -0.018453          0.025389
Line_41                      Line_41        1.0012e+05        1.0012e+05          -0.24627        -0.0087336           0.25196          0.036146
Line_42                      Line_42        1.0012e+05        1.0012e+05          -0.77663          -0.28179           0.77885           0.36845
Line_43                      Line_43        1.0012e+05        1.0108e+05           0.39529        -0.0080847          -0.39506            0.0242
Line_44                      Line_44        1.0012e+05        1.0012e+05          -0.68056           0.52779           0.68201          -0.51333
Line_45                      Line_45        1.0012e+05        1.0012e+05           0.53698           0.51107          -0.53606           -0.5009
Line_46                      Line_46        1.0012e+05        1.0012e+05            1.0807          -0.16588           -1.0729            0.2592
Line_47                      Line_47        1.0012e+05        1.0012e+05          -0.53304          -0.24194           0.53807            0.2711
Line_48                      Line_48        1.0012e+05        1.0012e+05          -0.43925          -0.25699           0.44897           0.27947
Line_49                      Line_49        1.0012e+05        1.0012e+05             1.581          -0.34077           -1.5679           0.50481
Line_50                      Line_50        1.0012e+05        1.0012e+05         -0.073784         -0.058271           0.07501          0.062499
Line_51                      Line_51        1.0012e+05        1.0012e+05         -0.043317         -0.087538          0.044221          0.092361
Line_52                      Line_52        1.0012e+05        1.0012e+05           -5.8593           0.27925            5.9073           0.31771
Line_53                      Line_53        1.0012e+05        1.0012e+05           0.18786          -0.10605           -0.1829           0.12233
Line_54                      Line_54        1.0012e+05        1.0012e+05          -0.10009         -0.038483           0.10197          0.045156
Line_55                      Line_55        1.0012e+05        1.0012e+05          0.023263         -0.028117         -0.023109          0.028696
Line_56                      Line_56        1.0012e+05        1.2267e+05          0.016411           0.22619         -0.016411          -0.21905
Line_57                      Line_57        1.0021e+05        1.0044e+05           -1.2634          0.086344            1.2799          0.038462
Line_58                      Line_58        1.0021e+05        1.0048e+05           -1.6049           0.51141            1.6836           0.11782
Line_59                      Line_59        1.0021e+05        1.0305e+05          0.058725          0.070798         -0.058403         -0.069209
Line_60                      Line_60        1.0044e+05        1.0307e+05           0.37313           0.15315          -0.36573          -0.10943
Line_61                      Line_61        1.0048e+05        1.0058e+05           -1.1908          -0.12255            1.1973           0.28861
Line_62                      Line_62        1.0048e+05        1.0106e+05           -0.8499           0.23924           0.85631          -0.13931
Line_63                      Line_63        1.0048e+05        1.0107e+05            8.3361           0.51427           -8.2848          -0.94345
Line_64                      Line_64        1.0048e+05        1.0112e+05            1.2036         -0.068469           -1.1967          -0.62076
Line_65                      Line_65          1.01e+05          1.01e+05            1.5364            1.0302            -1.535           -1.0856
Line_66                      Line_66          1.01e+05          1.01e+05            3.2998           0.59904           -3.2953          -0.62128
Line_67                      Line_67          1.01e+05        1.0103e+05            1.4017           0.63521              -1.4          -0.75389
Line_68                      Line_68          1.01e+05          1.01e+05            3.3343           0.13617           -3.3242          -0.19294
Line_69                      Line_69          1.01e+05        1.0101e+05            1.4316          -0.50376           -1.4277           0.18204
Line_70                      Line_70          1.01e+05        1.0103e+05            1.8926            0.6967           -1.8893          -0.77979
Line_71                      Line_71        1.0101e+05        1.0101e+05           -1.9817           -1.8122            1.9879            1.7036
Line_72                      Line_72        1.0101e+05        1.0101e+05            2.6985           0.13537           -2.6936          -0.20714
Line_73                      Line_73        1.0101e+05        1.0101e+05           -2.5137           -1.0472            2.5247           0.86251
Line_74                      Line_74        1.0101e+05        1.0101e+05           -2.2343          -0.46588            2.2382           0.27099
Line_75                      Line_75        1.0101e+05        1.0102e+05           -3.4374          -0.66622            3.4409           0.66258
Line_76                      Line_76        1.0101e+05        1.0101e+05             0.557            0.5757          -0.55651          -0.70331
Line_77                      Line_77        1.0101e+05        1.0102e+05            2.1366          -0.36856           -2.1308           0.11529
Line_78                      Line_78        1.0101e+05        1.0103e+05           -1.1154           0.38586             1.117          -0.57962
Line_79                      Line_79        1.0101e+05        1.0101e+05             -5.12           -1.4805            5.1413            1.5733
Line_80                      Line_80        1.0101e+05        1.0101e+05          -0.50298           0.10506           0.50314          -0.30072
Line_81                      Line_81        1.0101e+05        1.0102e+05            2.4773           0.48622           -2.4641          -0.66258
Line_82                      Line_82        1.0102e+05        1.0102e+05            2.1916          -0.92473           -2.1753           0.53662
Line_83                      Line_83        1.0102e+05        1.0103e+05           -2.4391             1.726            2.5018           -1.8031
Line_84                      Line_84        1.0102e+05        1.0102e+05           0.78156           0.66851          -0.77992          -0.90253
Line_85                      Line_85        1.0102e+05        1.0102e+05           0.24116          -0.65199          -0.24069          -0.17749
Line_86                      Line_86        1.0102e+05        1.0102e+05          -0.26063          -0.72598           0.26117          -0.37284
Line_87                      Line_87        1.0102e+05        1.0102e+05           -1.8529          -0.10708            1.8573          -0.11567
Line_88                      Line_88        1.0103e+05        1.0103e+05            4.4498           0.31118           -4.4246          -0.28331
Line_89                      Line_89        1.0103e+05        1.0104e+05           -6.9516            1.4919            7.1274          -0.14228
Line_90                      Line_90        1.0103e+05        1.0103e+05         -0.065955           0.84198           0.06713           -1.0405
Line_91                      Line_91        1.0103e+05        1.0103e+05           -3.3984           -0.1009            3.4079           0.12674
Line_92                      Line_92        1.0103e+05        1.0103e+05           -3.8006           -1.1006            3.8038            1.1028
Line_93                      Line_93        1.0103e+05        1.0104e+05           0.39261           0.97388          -0.39159           -1.1045
Line_94                      Line_94        1.0103e+05        1.0103e+05            1.8384            1.3047           -1.8352           -1.3628
Line_95                      Line_95        1.0103e+05        1.0104e+05          -0.58462           0.49413           0.58489          -0.56764
Line_96                      Line_96        1.0104e+05        1.0107e+05           -5.5827          -0.15532            5.6579           0.96564
Line_97                      Line_97        1.0104e+05        1.0104e+05           -4.4149           0.60271            4.4466          -0.53278
Line_98                      Line_98        1.0104e+05        1.0104e+05            6.3921           -1.1477           -6.3591           0.96525
Line_99                      Line_99        1.0104e+05        1.0104e+05           0.30619           0.59394          -0.30576          -0.63845
Line_100                    Line_100        1.0104e+05        1.0104e+05           -9.4108          0.093345            9.5253           0.21832
Line_101                    Line_101        1.0104e+05        1.0107e+05           -4.4466           0.53278            4.5346          -0.33446
Line_102                    Line_102        1.0104e+05        1.0107e+05            3.1796          -0.48263           -3.1605           0.37081
Line_103                    Line_103        1.0104e+05        1.0107e+05            3.1796          -0.48263           -3.1605           0.37081
Line_104                    Line_104        1.0104e+05        1.0104e+05            -2.769          -0.15383            2.8321           0.17001
Line_105                    Line_105        1.0104e+05        1.0104e+05           -3.2732          -0.83051            3.2926           0.85145
Line_106                    Line_106        1.0104e+05        1.0104e+05           -0.5793           0.25146           0.61152          -0.29357
Line_107                    Line_107        1.0104e+05        1.0104e+05            3.4314           0.24785           -3.4314           -0.1226
Line_108                    Line_108        1.0104e+05        1.0105e+05           -6.4784          -0.23308            6.5793           0.88672
Line_109                    Line_109        1.0104e+05        1.0105e+05           -6.4784          -0.23308            6.5793           0.88672
Line_110                    Line_110        1.0104e+05        1.0104e+05            2.2205           0.31326           -2.2205           -0.2137
Line_111                    Line_111        1.0104e+05        1.0105e+05           -1.6212          -0.36067            1.6593          -0.21706
Line_112                    Line_112        1.0104e+05        1.0105e+05           0.27121           0.11733          -0.25755          -0.22662
Line_113                    Line_113        1.0104e+05        1.0105e+05          -0.85559           0.16056           0.90122          -0.10183
Line_114                    Line_114        1.0104e+05        1.0107e+05          -0.28284           0.07928            0.2999          -0.14645
Line_115                    Line_115        1.0105e+05        1.0105e+05           -1.5346          0.052605            1.7139           0.24341
Line_116                    Line_116        1.0105e+05        1.0105e+05          0.045925         -0.072614         -0.045061          0.024491
Line_117                    Line_117        1.0105e+05        1.0105e+05           -2.5711          -0.52323            2.5711           0.73737
Line_118                    Line_118        1.0105e+05        1.0105e+05            4.0577           0.66353           -4.0577          -0.34613
Line_119                    Line_119        1.0105e+05        1.0105e+05           -9.6246            2.1497            9.8074           -1.5226
Line_120                    Line_120        1.0105e+05        1.0105e+05           -1.0559           0.51609            1.1743          -0.44844
Line_121                    Line_121        1.0105e+05        1.0107e+05          -0.76549          -0.43696           0.76861           0.12353
Line_122                    Line_122        1.0105e+05        1.0105e+05           0.36413         -0.022632          -0.36396          0.027504
Line_123                    Line_123        1.0105e+05        1.0106e+05            -1.907           0.50025            2.0221            -0.411
Line_124                    Line_124        1.0105e+05        1.0106e+05           0.65589          -0.41669          -0.63667           0.40704
Line_125                    Line_125        1.0105e+05        1.0106e+05            2.8317            -2.065           -2.7198            2.0796
Line_126                    Line_126        1.0105e+05        1.0106e+05            2.0439           0.34735           -2.0117          -0.20635
Line_127                    Line_127        1.0105e+05         1.011e+05            2.3047           0.73949           -2.2959          -0.66798
Line_128                    Line_128        1.0105e+05         1.011e+05            2.6412            1.1567           -2.6288           -1.0278
Line_129                    Line_129        1.0106e+05        1.0106e+05           0.66339           0.13402          -0.66023           -0.1384
Line_130                    Line_130        1.0106e+05        1.0106e+05             1.544          0.027048           -1.5087           0.11078
Line_131                    Line_131        1.0106e+05        1.0106e+05            5.1915            1.4248           -5.1366           -1.1261
Line_132                    Line_132        1.0106e+05        1.0106e+05            1.4463         -0.086496           -1.4186           0.18938
Line_133                    Line_133        1.0106e+05        1.0106e+05          -0.67071           -1.1976           0.67623           0.97054
Line_134                    Line_134        1.0106e+05        1.0106e+05            1.0248          -0.40586           -1.0224           0.39726
Line_135                    Line_135        1.0106e+05        1.0106e+05          -0.17735         -0.090994           0.17965           0.03218
Line_136                    Line_136        1.0106e+05        1.0112e+05            2.9456           -0.1405           -2.9143           0.35652
Line_137                    Line_137        1.0106e+05        1.0106e+05            2.1778         -0.051595           -2.1174           0.27821
Line_138                    Line_138        1.0106e+05        1.0106e+05            1.0416         -0.082084           -1.0416           0.13316
Line_139                    Line_139        1.0106e+05        1.0107e+05            1.0758          -0.19613           -1.0615            0.1293
Line_140                    Line_140        1.0106e+05        1.0106e+05          -0.79103          -0.20039           0.81417           0.20141
Line_141                    Line_141        1.0106e+05        1.0107e+05           0.39936          -0.18334          -0.38209          0.095464
Line_142                    Line_142        1.0107e+05        1.0107e+05            3.2311           0.79984           -3.2311          -0.54866
Line_143                    Line_143        1.0107e+05        1.0107e+05            5.0537           0.14361           -5.0084            0.2721
Line_144                    Line_144        1.0107e+05        1.0107e+05            1.0256           0.10546           -1.0256         -0.052734
Line_145                    Line_145        1.0107e+05        1.0107e+05           0.71191          -0.15631          -0.70825          0.069873
Line_146                    Line_146        1.0107e+05        1.0112e+05            2.5551           0.47022           -2.5118          -0.21849
Line_147                    Line_147        1.0107e+05        1.0107e+05          0.083897           -0.1299         -0.081912          0.063972
Line_148                    Line_148        1.0107e+05        1.0107e+05           0.47384          0.062352          -0.47384         -0.053824
Line_149                    Line_149        1.0107e+05        1.0107e+05           0.70825         -0.069873          -0.70825          0.094894
Line_150                    Line_150        1.0107e+05        1.0107e+05           -1.2808           -3.2509            1.3438            3.3062
Line_151                    Line_151        1.0107e+05        1.0107e+05           0.33156          -0.85363          -0.33033           0.51307
Line_152                    Line_152        1.0107e+05        1.0107e+05           0.33156          -0.85363          -0.33033           0.51307
Line_153                    Line_153        1.0107e+05        1.0108e+05           -1.5115           -1.9546            1.5132            1.8946
Line_154                    Line_154        1.0107e+05        1.0108e+05           0.57541           0.46421          -0.57506            -0.795
Line_155                    Line_155        1.0107e+05        1.0108e+05           0.57541           0.46421          -0.57506            -0.795
Line_156                    Line_156        1.0108e+05        1.0111e+05           -1.5237          -0.45994            1.5253          -0.98171
Line_157                    Line_157        1.0108e+05        1.0108e+05            1.5235           0.44283           -1.5132           -1.8946
Line_158                    Line_158        1.0108e+05        1.0108e+05           -9.9709           -1.0938            9.9999            2.5734
Line_159                    Line_159        1.0108e+05        1.0108e+05          -0.13366          -0.28472            0.1339          -0.23608
Line_160                    Line_160        1.0108e+05        1.0108e+05            3.5747          -0.12163           -3.5685             0.461
Line_161                    Line_161        1.0108e+05        1.0108e+05           -4.5885          -0.61627            4.5988            1.2508
Line_162                    Line_162        1.0108e+05        1.0112e+05            3.5685            -0.461           -3.5673           0.47453
Line_163                    Line_163        1.0108e+05        1.0111e+05          -0.75466          -0.10847           0.76528            0.1967
Line_164                    Line_164        1.0108e+05        1.0111e+05           0.34418         -0.079356          -0.34373          0.081845
Line_165                    Line_165        1.0108e+05        1.0109e+05            3.0597            1.2699           -3.0444           -1.1104
Line_166                    Line_166        1.0108e+05        1.0109e+05            3.0597            1.2699           -3.0444           -1.1104
Line_167                    Line_167        1.0108e+05         1.011e+05             1.857           0.35264           -1.8253          -0.20506
Line_168                    Line_168        1.0108e+05         1.011e+05             1.857           0.35264           -1.8253          -0.20506
Line_169                    Line_169        1.0108e+05        1.0111e+05             1.974           0.35941           -1.9496          -0.26112
Line_170                    Line_170        1.0108e+05        1.0111e+05             1.974           0.35941           -1.9496          -0.26112
Line_171                    Line_171        1.0109e+05        1.0109e+05            2.2228            1.5866           -2.2194           -1.4469
Line_172                    Line_172        1.0109e+05         1.011e+05            1.3886           0.04489           -1.3687         -0.050663
Line_173                    Line_173        1.0109e+05         1.011e+05            1.3886           0.04489           -1.3687         -0.050663
Line_174                    Line_174        1.0109e+05        1.0109e+05           0.72055           0.91294          -0.71885           -0.9065
Line_175                    Line_175        1.0109e+05         1.011e+05           0.24008         -0.087628          -0.23441           0.10896
Line_176                    Line_176        1.0109e+05        1.0111e+05           0.28294         -0.061546          -0.27109          0.095057
Line_177                    Line_177        1.0109e+05        1.0109e+05          -0.82386          0.081006           0.82754         -0.022207
Line_178                    Line_178        1.0109e+05        1.0109e+05           0.33414           0.23976          -0.32756          -0.19391
Line_179                    Line_179        1.0109e+05         1.011e+05           0.34969           0.47096          -0.34139           -0.4123
Line_180                    Line_180        1.0109e+05         1.011e+05           -3.8618            1.2011            4.0433          0.090326
Line_181                    Line_181        1.0109e+05        1.0111e+05           -3.1977             3.578            3.2339           -3.3289
Line_182                    Line_182        1.0109e+05         1.011e+05            3.5237          0.081092           -3.5145           0.26692
Line_183                    Line_183        1.0109e+05        1.0109e+05            -0.695          0.054693            0.6972         -0.039849
Line_184                    Line_184        1.0109e+05         1.011e+05          -0.22863           0.13922           0.23008          -0.12929
Line_185                    Line_185        1.0109e+05        1.0111e+05           -1.6485          0.039849            1.6628          0.058416
Line_186                    Line_186         1.011e+05         1.011e+05          -0.13872          -0.45854           0.14219           0.48287
Line_187                    Line_187         1.011e+05         1.011e+05          -0.34223          -0.48287           0.34787           0.50989
Line_188                    Line_188         1.011e+05         1.011e+05            1.8176           0.15504           -1.8167          -0.12674
Line_189                    Line_189         1.011e+05         1.011e+05            1.8167           0.12674           -1.8136          0.089252
Line_190                    Line_190         1.011e+05         1.011e+05            3.2869           0.72109           -3.2078          0.072837
Line_191                    Line_191         1.011e+05         1.011e+05           0.48713           0.12081          -0.48284         -0.086698
Line_192                    Line_192         1.011e+05        1.0111e+05            2.6751            0.4885           -2.6241          0.015216
Line_193                    Line_193         1.011e+05        1.0111e+05             3.084           0.66527           -3.0136          0.031714
Line_194                    Line_194         1.011e+05        1.0111e+05             3.047           0.66122           -2.9783          0.029219
Line_195                    Line_195         1.011e+05        1.0111e+05            1.0311           0.11668          -0.98405           0.14079
Line_196                    Line_196         1.011e+05        1.0111e+05            -1.313         0.0028359            1.3161           0.02812
Line_197                    Line_197         1.011e+05        1.0111e+05            2.5229          -0.97471           -2.5185              1.02
Line_198                    Line_198         1.011e+05        1.0111e+05            1.3446           0.10769           -1.3161          0.091994
Line_199                    Line_199         1.011e+05        1.0111e+05            1.1453          0.070871           -1.1309          0.067013
Line_200                    Line_200         1.011e+05        1.0111e+05            2.9986           0.47112           -2.8832           0.11188
...

OTHER ALGEBRAIC VARIABLES:
                                    

q PV 2                        1.5833
q PV 3                         1.019
q PV 4                       0.49557
q PV 5                       0.90295
q PV 6                       0.99657
q PV 7                       0.41972
q PV 8                        41.729
q PV 9                        2.2188
q PV 10                       1.0359
q PV 11                      0.88132
q PV 12                      0.87918
q PV 13                       2.0098
q PV 14                      0.55455
q PV 15                      0.16282
q PV 16                       1.3868
q PV 17                       2.3044
q PV 18                       1.0214
q PV 19                      0.68363
q PV 20                       2.0797
q PV 21                       4.5867
q PV 22                      0.36078
q PV 23                       2.1626
q PV 24                     0.020699
q PV 25                     0.020699
q PV 26                       2.0666
q PV 27                       4.0868
q PV 28                     -0.42706
q PV 29                        1.056
q PV 30                    -0.095648
q PV 31                      0.60845
q PV 32                      0.32283
q PV 33                      -2.7623
q PV 34                       3.4297
q PV 35                       2.2936
q PV 36                       2.5734
q PV 37                     0.013919
q PV 38                       1.2508
q PV 39                       5.2805
q PV 40                       10.567
q PV 41                       3.2589
q PV 42                       1.2768
q PV 43                      0.24537
q PV 44                       2.6116
q PV 45                       2.4992
q PV 46                       8.2879
q PV 47                       18.638
q PV 48                       26.425
q PV 49                       48.994
q PV 50                       28.103
q PV 51                         27.2
q PV 52                       117.27
q PV 53                       94.399
q PV 54                       112.64
q PV 55                        50.49
q PV 56                       32.248
q PV 57                       69.513
q PV 58                       9.5209
q PV 59                       39.218
q PV 60                       21.209
q PV 61                       7.6713
q PV 62                       85.552
q PV 63                       13.735
q PV 64                       25.144
q PV 65                       71.357
q PV 66                       44.008
q PV 67                       16.716
q PV 68                        6.688
q PV 69                        9.851
q PV 70                        13.28
q PV 71                       16.523
q PV 72                       5.1885
q PV 73                       2.0277
q PV 74                       25.086
q PV 75                       16.894
q PV 76                       6.1547
q PV 77                       8.4893
q PV 78                         9.39
q PV 79                       11.869
q PV 80                       13.355
q PV 81                       2.9775
q PV 82                       15.107
q PV 83                       75.299
q PV 84                       57.557
q Slack 1                     58.827
p Slack 1                     254.76

